Version 4.1
SHEET 1 3088 948
WIRE 1712 -48 1632 -48
WIRE 1392 -32 -32 -32
WIRE 1760 32 1760 16
WIRE -32 48 -32 -32
WIRE 0 48 -32 48
WIRE 1760 48 1760 32
WIRE 1856 48 1760 48
WIRE 1632 64 1632 -48
WIRE 1760 64 1760 48
WIRE 0 80 -288 80
WIRE 784 80 544 80
WIRE 352 96 128 96
WIRE 1136 96 912 96
WIRE 0 112 -400 112
WIRE 784 112 720 112
WIRE 352 128 272 128
WIRE 512 128 480 128
WIRE 544 128 544 80
WIRE 544 128 512 128
WIRE 1136 128 1056 128
WIRE 1296 128 1264 128
WIRE 1328 128 1296 128
WIRE 1632 144 1632 64
WIRE 1712 144 1632 144
WIRE 720 192 720 112
WIRE 272 288 272 128
WIRE 512 288 272 288
WIRE 1056 288 1056 128
WIRE 1296 288 1056 288
WIRE 544 352 544 128
WIRE 544 352 304 352
WIRE 1328 352 1328 128
WIRE 1328 352 1088 352
WIRE 0 416 -400 416
WIRE 720 416 720 192
WIRE 784 416 720 416
WIRE 304 432 304 352
WIRE 352 432 304 432
WIRE 1088 432 1088 352
WIRE 1136 432 1088 432
WIRE -288 448 -288 80
WIRE 0 448 -288 448
WIRE 512 448 512 288
WIRE 784 448 512 448
WIRE 352 464 128 464
WIRE 512 464 512 448
WIRE 512 464 480 464
WIRE 1136 464 912 464
WIRE 1296 464 1296 288
WIRE 1296 464 1264 464
WIRE 1376 464 1296 464
WIRE 1392 464 1392 -32
WIRE 1392 464 1376 464
WIRE 0 480 -64 480
WIRE -64 576 -64 480
WIRE 1328 576 1328 352
WIRE 1328 576 -64 576
FLAG -304 880 0
FLAG -304 800 VCC
FLAG 0 144 VCC
FLAG -176 880 0
FLAG -176 800 CLK
FLAG -288 80 CLK
FLAG 0 512 VCC
FLAG 352 160 VCC
FLAG 352 496 VCC
FLAG 784 512 VCC
FLAG 1136 160 VCC
FLAG 1136 496 VCC
FLAG 784 144 VCC
FLAG 784 48 VCC
FLAG 784 480 VCC
FLAG 1296 128 Q
FLAG 1376 464 /Q
FLAG 512 128 M
FLAG 1632 64 CLK
FLAG 1760 160 0
FLAG 1760 -64 VCC
FLAG 1856 48 \CLK
FLAG 720 192 \CLK
FLAG -400 416 VCC
FLAG -400 112 VCC
SYMBOL voltage -304 784 R0
WINDOW 123 0 0 Left 0
WINDOW 39 0 0 Left 0
SYMATTR InstName V1
SYMATTR Value 3.3
SYMBOL voltage -176 784 R0
WINDOW 123 0 0 Left 0
WINDOW 39 0 0 Left 0
SYMATTR InstName V2
SYMATTR Value PULSE(0 3.3 0 1ms 1ms 0.1 0.2)
SYMBOL nand3-gate 64 96 R0
SYMATTR InstName X3
SYMBOL nand3-gate 64 464 R0
SYMATTR InstName X1
SYMBOL nand-gate 416 128 R0
SYMATTR InstName X2
SYMBOL nand-gate 416 464 R0
SYMATTR InstName X4
SYMBOL nand3-gate 848 96 R0
SYMATTR InstName X5
SYMBOL nand3-gate 848 464 R0
SYMATTR InstName X6
SYMBOL nand-gate 1200 128 R0
SYMATTR InstName X7
SYMBOL nand-gate 1200 464 R0
SYMATTR InstName X8
SYMBOL nmos 1712 64 R0
SYMATTR InstName M1
SYMATTR Value 2N7002
SYMBOL pmos 1712 32 M180
SYMATTR InstName M2
SYMATTR Value AO3401A
SYMATTR Prefix X
TEXT -280 656 Left 2 !.tran 1s
TEXT 2000 128 Left 2 !.SUBCKT AO3401A 4 1 2\nM1  3 1 2 2 PMOS W=998956u  L=1.0u \nM2  2 1 2 4 NMOS W=998956u  L=0.7u\nR1  4 3     RTEMP 17E-3\nCGS 1 2     30E-12\nDBD 3 2     DBD\n**************************************************************************\n.MODEL  PMOS       PMOS  (LEVEL  = 3               TOX    = 2.5E-8\n+ RS     = 2E-4           RD     = 0               NSUB   = 2E17  \n+ UO     = 120             THETA  = 0.2                            VTO=-1.1\n+ VMAX   = 5e6             XJ     = 4E-7            KAPPA  = 1.2\n+ ETA    = 0              TPG    = 1  \n+ IS     = 0              LD     = 0                           \n+ CGSO   = 0              CGDO   = 0               CGBO   = 0 \n+ NFS    = 2E10         DELTA  = 0)\n*************************************************************************\n.MODEL  NMOS       NMOS (LEVEL   = 3               TOX    = 5.2E-8\n+NSUB    = 2.0E16           TPG    = -1)   \n*************************************************************************\n.MODEL DBD D (CJO=900E-13     VJ=0.6    M=0.3\n+RS=0.005 FC=0.5 IS=1E-12 TT=1.6E-8 N=1.0 BV=36 IBV=1E-4)\n*************************************************************************\n.MODEL RTEMP RES (TC1=1.5E-3   TC2=1E-6)\n*************************************************************************\n.ENDS
